data_1
_audit_creation_method   'vasp2cif'
_cell_length_a    9.4616994858
_cell_length_b    9.46169948579
_cell_length_c    30.0010604858
_cell_angle_alpha    90.0354995727
_cell_angle_beta    88.8726730346
_cell_angle_gamma    120.000961304

_symmetry_space_group_name_H-M    'P 1'
loop_
_atom_site_label
_atom_site_type_symbol
_atom_site_fract_x
_atom_site_fract_y
_atom_site_fract_z
_atom_site_occupancy
Nb1   Nb   0.097820394000000   0.214207694000000   0.369132698000000   1.0
Nb2   Nb   0.097804807000000   0.547534227000000   0.369144350000000   1.0
Nb3   Nb   0.097816505000000   0.880879343000000   0.369143546000000   1.0
Nb4   Nb   0.431153893000000   0.214217648000000   0.369129747000000   1.0
Nb5   Nb   0.431155026000000   0.547540903000000   0.369137675000000   1.0
Nb6   Nb   0.431148410000000   0.880881310000000   0.369140297000000   1.0
Nb7   Nb   0.764475465000000   0.214211002000000   0.369135052000000   1.0
Nb8   Nb   0.764477909000000   0.547540188000000   0.369141549000000   1.0
Nb9   Nb   0.764483392000000   0.880875111000000   0.369132400000000   1.0
Nb10   Nb   0.202102691000000   0.099863514000000   0.452407926000000   1.0
Nb11   Nb   0.202107057000000   0.433185399000000   0.452398390000000   1.0
Nb12   Nb   0.202120468000000   0.766537189000000   0.452398270000000   1.0
Nb13   Nb   0.535450816000000   0.099856153000000   0.452407867000000   1.0
Nb14   Nb   0.535438657000000   0.433191627000000   0.452408731000000   1.0
Nb15   Nb   0.535449624000000   0.766531825000000   0.452401042000000   1.0
Nb16   Nb   0.868770480000000   0.099850178000000   0.452411354000000   1.0
Nb17   Nb   0.868774056000000   0.433185250000000   0.452405185000000   1.0
Nb18   Nb   0.868770838000000   0.766531646000000   0.452405542000000   1.0
C19   C   0.316658407000000   0.323621482000000   0.410774350000000   1.0
C20   C   0.316666991000000   0.657003105000000   0.410757840000000   1.0
C21   C   0.316716552000000   0.990566313000000   0.410774827000000   1.0
C22   C   0.649861217000000   0.323646992000000   0.410791487000000   1.0
C23   C   0.649978101000000   0.657020390000000   0.410775632000000   1.0
C24   C   0.650079250000000   0.990406811000000   0.410761386000000   1.0
C25   C   0.983223438000000   0.323523283000000   0.410775900000000   1.0
C26   C   0.983231604000000   0.657016397000000   0.410796523000000   1.0
C27   C   0.983265400000000   0.990420580000000   0.410763651000000   1.0
O28   O   0.211805642000000   0.104490019000000   0.334036082000000   1.0
O29   O   0.211777657000000   0.437770605000000   0.334037870000000   1.0
O30   O   0.211764440000000   0.771129012000000   0.334033847000000   1.0
O31   O   0.545159578000000   0.104501091000000   0.334032774000000   1.0
O32   O   0.545122266000000   0.437788457000000   0.334033877000000   1.0
O33   O   0.545144379000000   0.771144450000000   0.334027410000000   1.0
O34   O   0.878488243000000   0.104510762000000   0.334035367000000   1.0
O35   O   0.878449380000000   0.437781930000000   0.334039986000000   1.0
O36   O   0.878467143000000   0.771141231000000   0.334034532000000   1.0
O37   O   0.088117994000000   0.209583461000000   0.487502754000000   1.0
O38   O   0.088155665000000   0.542934000000000   0.487507850000000   1.0
O39   O   0.088145904000000   0.876300514000000   0.487504035000000   1.0
O40   O   0.421444327000000   0.209575593000000   0.487503260000000   1.0
O41   O   0.421452433000000   0.542935073000000   0.487501800000000   1.0
O42   O   0.421477199000000   0.876301587000000   0.487501621000000   1.0
O43   O   0.754769325000000   0.209566161000000   0.487507910000000   1.0
O44   O   0.754776597000000   0.542935193000000   0.487512618000000   1.0
O45   O   0.754809499000000   0.876304030000000   0.487506181000000   1.0
Pb46   Pb   0.536435975055694   0.217344182678470   0.554949209179811   1.0


